test/data/ieee13/IEEE13Nodeckt_Power_elem_kVA.txt

CIRCUIT ELEMENT POWER FLOW

(Power Flow into element from indicated Bus)

Power Delivery Elements

  Bus Phase     kW     +j   kvar         kVA         PF

ELEMENT = "Vsource.source"
650     1         0.0 +j      0.0        0.0       1.0000
650     2         0.0 +j      0.0        0.0      -1.0000
650     3         0.0 +j      0.0        0.0      -1.0000
   TERMINAL TOTAL     0.0 +j      0.0        0.0       1.0000
650     0         0.0 +j      0.0        0.0       1.0000
650     0         0.0 +j      0.0        0.0       1.0000
650     0         0.0 +j      0.0        0.0       1.0000
   TERMINAL TOTAL     0.0 +j      0.0        0.0       1.0000

ELEMENT = "Line.650632"
650      1        -0.0 +j      0.0        0.0      -1.0000
650      2         0.0 +j      0.0        0.0       1.0000
650      3        -0.0 +j     -0.0        0.0       1.0000
   TERMINAL TOTAL    -0.0 +j      0.0        0.0      -1.0000
632      1         0.0 +j     -0.0        0.0      -1.0000
632      2        -0.0 +j     -0.0        0.0       1.0000
632      3         0.0 +j      0.0        0.0       1.0000
   TERMINAL TOTAL     0.0 +j     -0.0        0.0      -1.0000

ELEMENT = "Line.632670"
632      1        -0.0 +j     -0.0        0.0       1.0000
632      2         0.0 +j      0.0        0.0       1.0000
632      3        -0.0 +j     -0.0        0.0       1.0000
   TERMINAL TOTAL    -0.0 +j     -0.0        0.0       1.0000
670      1         0.0 +j      0.0        0.0       1.0000
670      2        -0.0 +j     -0.0        0.0       1.0000
670      3         0.0 +j      0.0        0.0       1.0000
   TERMINAL TOTAL     0.0 +j      0.0        0.0       1.0000

ELEMENT = "Line.670671"
670      1        -0.0 +j     -0.0        0.0       1.0000
670      2         0.0 +j      0.0        0.0       1.0000
670      3        -0.0 +j     -0.0        0.0       1.0000
   TERMINAL TOTAL    -0.0 +j     -0.0        0.0       1.0000
671      1         0.0 +j      0.0        0.0       1.0000
671      2        -0.0 +j     -0.0        0.0       1.0000
671      3         0.0 +j      0.0        0.0       1.0000
   TERMINAL TOTAL     0.0 +j      0.0        0.0       1.0000

ELEMENT = "Line.671680"
671      1         0.0 +j     -0.0        0.0      -0.0000
671      2         0.0 +j      0.0        0.0       0.1426
671      3        -0.0 +j     -0.0        0.0       0.8660
   TERMINAL TOTAL    -0.0 +j     -0.0        0.0       0.8501
680      1        -0.0 +j      0.0        0.0      -0.0000
680      2        -0.0 +j     -0.0        0.0       0.1426
680      3         0.0 +j      0.0        0.0       0.8660
   TERMINAL TOTAL     0.0 +j      0.0        0.0       0.8501

ELEMENT = "Line.632633"
632      1         0.0 +j     -0.0        0.0      -0.8087
632      2         0.0 +j      0.0        0.0       0.6677
632      3        -0.0 +j     -0.0        0.0       0.8660
   TERMINAL TOTAL     0.0 +j      0.0        0.0       0.8826
633      1        -0.0 +j      0.0        0.0      -0.8087
633      2        -0.0 +j     -0.0        0.0       0.6677
633      3         0.0 +j      0.0        0.0       0.8660
   TERMINAL TOTAL    -0.0 +j     -0.0        0.0       0.8826

ELEMENT = "Line.632645"
632      2        -0.0 +j     -0.0        0.0       0.6601
632      3         0.0 +j      0.0        0.0       0.3928
   TERMINAL TOTAL     0.0 +j      0.0        0.0       0.1042
645      2         0.0 +j      0.0        0.0       0.6601
645      3        -0.0 +j     -0.0        0.0       0.3928
   TERMINAL TOTAL    -0.0 +j     -0.0        0.0       0.1042

ELEMENT = "Line.645646"
645      2         0.0 +j     -0.0        0.0      -0.7458
645      3         0.0 +j     -0.0        0.0      -0.5000
   TERMINAL TOTAL     0.0 +j     -0.0        0.0      -0.6918
646      2        -0.0 +j      0.0        0.0      -0.7458
646      3        -0.0 +j      0.0        0.0      -0.5000
   TERMINAL TOTAL    -0.0 +j      0.0        0.0      -0.6918

ELEMENT = "Line.692675"
692      1        -0.0 +j      0.0        0.0      -0.0000
692      2        -0.0 +j     -0.0        0.0       0.8638
692      3         0.0 +j     -0.0        0.0      -0.0045
   TERMINAL TOTAL    -0.0 +j     -0.0        0.0       0.5604
675      1         0.0 +j     -0.0        0.0      -0.0000
675      2         0.0 +j      0.0        0.0       0.8638
675      3        -0.0 +j      0.0        0.0      -0.0045
   TERMINAL TOTAL     0.0 +j      0.0        0.0       0.5604

ELEMENT = "Line.671684"
671      1         0.0 +j     -0.0        0.0      -0.7907
671      3         0.0 +j     -0.0        0.0      -0.5000
   TERMINAL TOTAL     0.0 +j     -0.0        0.0      -0.6926
684      1        -0.0 +j      0.0        0.0      -0.7907
684      3        -0.0 +j      0.0        0.0      -0.5000
   TERMINAL TOTAL    -0.0 +j      0.0        0.0      -0.6926

ELEMENT = "Line.684611"
684      3         0.0 +j      0.0        0.0       1.0000
   TERMINAL TOTAL     0.0 +j      0.0        0.0       1.0000

ELEMENT = "Line.684652"
684      1         0.0 +j      0.0        0.0       0.9991
   TERMINAL TOTAL     0.0 +j      0.0        0.0       0.9991

ELEMENT = "Line.671692"
671      1         0.0 +j      0.0        0.0       1.0000
671      2        -0.0 +j      0.0        0.0       1.0000
671      3         0.0 +j      0.0        0.0       1.0000
   TERMINAL TOTAL     0.0 +j      0.0        0.0       1.0000
692      1         0.0 +j      0.0        0.0       1.0000
692      2        -0.0 +j      0.0        0.0       1.0000
692      3         0.0 +j      0.0        0.0       1.0000
   TERMINAL TOTAL     0.0 +j      0.0        0.0       1.0000

= = = = = = = = = = = = = = = = = = =  = = = = = = = = = = =  = =

Power Conversion Elements

  Bus Phase     kW   +j  kvar         kVA         PF


Total Circuit Losses =    0.0 +j    0.0
